<configuration>
    <input>
        <net-file value="intersection.net.xml"/>
        <route-files value="routes.rou.xml"/>
    </input>
    <time>
        <begin value="0"/>
        <end value="3660"/>
    </time>
    <processing>
        <time-to-teleport value="-1"/>
        <lateral-resolution value="0.6"/>
    </processing>
</configuration>
