<edges>
    <edge id="n2c" from="n" to="c" numLanes="2" speed="13.9" width="3.2"/>
    <edge id="s2c" from="s" to="c" numLanes="2" speed="13.9" width="3.2"/>
    <edge id="e2c" from="e" to="c" numLanes="2" speed="13.9" width="3.2"/>
    <edge id="w2c" from="w" to="c" numLanes="2" speed="13.9" width="3.2"/>

    <edge id="c2n" from="c" to="n" numLanes="2" speed="13.9" width="3.2"/>
    <edge id="c2s" from="c" to="s" numLanes="2" speed="13.9" width="3.2"/>
    <edge id="c2e" from="c" to="e" numLanes="2" speed="13.9" width="3.2"/>
    <edge id="c2w" from="c" to="w" numLanes="2" speed="13.9" width="3.2"/>
</edges>
