<nodes>
    <node id="c" x="0" y="0" type="traffic_light"/>
    <node id="n" x="0" y="100"/>
    <node id="s" x="0" y="-100"/>
    <node id="e" x="100" y="0"/>
    <node id="w" x="-100" y="0"/>
</nodes>
