<routes>
    <!-- Vietnamese vehicle types: emphasize motorcycles -->
    <!-- Motorcycle: sublane + width 0.6m for parallel riding in one lane -->
    <vType id="motorcycle" accel="3.0" decel="5.0" sigma="0.3" length="2.0" width="0.6" minGap="0.2" maxSpeed="16.67" vClass="motorcycle" lcSublane="1.0" latAlignment="compact"/>
    <!-- Car: reduced minGap for mixed car + motorcycle in one lane -->
    <vType id="car" accel="2.6" decel="4.5" sigma="0.5" length="5.0" minGap="1.0" maxSpeed="13.89" vClass="passenger"/>
    <vType id="bus" accel="1.2" decel="3.5" sigma="0.5" length="12.0" minGap="3.0" maxSpeed="11.11" vClass="bus"/>
    <vType id="truck" accel="1.5" decel="3.0" sigma="0.5" length="7.5" minGap="2.5" maxSpeed="11.11" vClass="truck"/>

    <!-- Routes: through movements -->
    <route id="n2s" edges="n2c c2s"/>
    <route id="s2n" edges="s2c c2n"/>
    <route id="e2w" edges="e2c c2w"/>
    <route id="w2e" edges="w2c c2e"/>

    <!-- Traffic flows: EW (trục chính) = đúng 2× NS (trục phụ) -->
    <!-- Tỉ lệ lưu lượng EW:NS = 2:1 (chính xác) -->
    <!-- NS: moto 0.15 + car 0.075 + bus 0.025 = 0.25/s/hướng -->
    <!-- EW: moto 0.30 + car 0.15  + truck 0.05 = 0.50/s/hướng = 2 × NS -->

    <!-- Trục PHỤ Bắc-Nam -->
    <flow id="flow_n2s_moto" type="motorcycle" route="n2s" begin="0" end="3660" probability="0.15"/>
    <flow id="flow_n2s_car" type="car" route="n2s" begin="0" end="3660" probability="0.075"/>
    <flow id="flow_n2s_bus" type="bus" route="n2s" begin="0" end="3660" probability="0.025"/>

    <flow id="flow_s2n_moto" type="motorcycle" route="s2n" begin="0" end="3660" probability="0.15"/>
    <flow id="flow_s2n_car" type="car" route="s2n" begin="0" end="3660" probability="0.075"/>

    <!-- Trục CHÍNH Đông-Tây (2× NS) -->
    <flow id="flow_e2w_moto" type="motorcycle" route="e2w" begin="0" end="3660" probability="0.30"/>
    <flow id="flow_e2w_car" type="car" route="e2w" begin="0" end="3660" probability="0.15"/>
    <flow id="flow_e2w_truck" type="truck" route="e2w" begin="0" end="3660" probability="0.05"/>

    <flow id="flow_w2e_moto" type="motorcycle" route="w2e" begin="0" end="3660" probability="0.30"/>
    <flow id="flow_w2e_car" type="car" route="w2e" begin="0" end="3660" probability="0.15"/>
</routes>
